MODEL 1
REMARK VINA RESULT:     -13.1      0.000      0.000
REMARK  7 active torsions:
REMARK  status: ('A' for Active; 'I' for Inactive)
REMARK    1  A    between atoms: C5_5  and  C7_7 
REMARK    2  A    between atoms: C9_9  and  N13_13 
REMARK    3  A    between atoms: N13_13  and  C14_14 
REMARK    4  A    between atoms: C16_16  and  N21_21 
REMARK       I    between atoms: N21_21  and  C22_22 
REMARK    5  A    between atoms: C22_22  and  C23_23 
REMARK    6  A    between atoms: C27_26  and  C46_30 
REMARK    7  A    between atoms: C46_30  and  N48_31 
ROOT
HETATM    1  C1  STI   202      16.370 100.390  50.530  1.00  0.00    -0.001 A 
HETATM    2  C2  STI   202      17.320 101.303  51.099  1.00  0.00     0.095 A 
HETATM    3  N3  STI   202      17.139 101.791  52.397  1.00  0.00    -0.243 NA
HETATM    4  C4  STI   202      16.056 101.428  53.193  1.00  0.00     0.097 A 
HETATM    5  C5  STI   202      15.056 100.508  52.684  1.00  0.00     0.020 A 
HETATM    6  C6  STI   202      15.232  99.994  51.331  1.00  0.00     0.057 A 
ENDROOT
BRANCH   5   7
HETATM    7  C7  STI   202      13.894 100.134  53.557  1.00  0.00     0.099 A 
HETATM    8  N8  STI   202      14.055 100.291  54.920  1.00  0.00    -0.061 NA
HETATM    9  C9  STI   202      13.065  99.987  55.804  1.00  0.00     0.728 A 
HETATM   10  N10 STI   202      11.852  99.505  55.340  1.00  0.00    -0.059 NA
HETATM   11  C11 STI   202      11.630  99.326  53.985  1.00  0.00     0.119 A 
HETATM   12  C12 STI   202      12.645  99.636  53.044  1.00  0.00     0.041 A 
BRANCH   9  13
HETATM   13  N13 STI   202      13.321 100.183  57.164  1.00  0.00    -0.190 N 
HETATM   14  H   STI   202      14.304 100.519  57.465  1.00  0.00     0.184 HD
BRANCH  13  15
HETATM   15  C14 STI   202      12.350  99.959  58.156  1.00  0.00     0.052 A 
HETATM   16  C15 STI   202      12.430  98.764  58.936  1.00  0.00     0.087 A 
HETATM   17  C16 STI   202      11.450  98.484  59.987  1.00  0.00     0.042 A 
HETATM   18  C17 STI   202      10.413  99.430  60.214  1.00  0.00     0.013 A 
HETATM   19  C18 STI   202      10.322 100.639  59.435  1.00  0.00    -0.002 A 
HETATM   20  C19 STI   202      11.278 100.928  58.401  1.00  0.00    -0.009 A 
HETATM   21  C20 STI   202      11.117 102.250  57.613  1.00  0.00     0.032 C 
BRANCH  17  22
HETATM   22  N21 STI   202      11.466  97.304  60.819  1.00  0.00    -0.325 N 
HETATM   23  C22 STI   202      12.462  96.356  60.950  1.00  0.00     0.253 C 
HETATM   24  O29 STI   202      13.415  96.247  60.203  1.00  0.00    -0.268 OA
HETATM   25  H   STI   202      10.581  97.141  61.420  1.00  0.00     0.169 HD
BRANCH  23  26
HETATM   26  C23 STI   202      12.383  95.370  62.068  1.00  0.00     0.034 A 
HETATM   27  C25 STI   202      13.576  94.659  62.529  1.00  0.00     0.036 A 
HETATM   28  C26 STI   202      13.469  93.698  63.597  1.00  0.00     0.029 A 
HETATM   29  C27 STI   202      12.174  93.447  64.206  1.00  0.00    -0.011 A 
HETATM   30  C28 STI   202      11.009  94.167  63.735  1.00  0.00    -0.007 A 
HETATM   31  C29 STI   202      11.105  95.109  62.689  1.00  0.00    -0.000 A 
BRANCH  29  32
HETATM   32  C46 STI   202      11.976  92.425  65.330  1.00  0.00     0.273 C 
BRANCH  32  33
HETATM   33  N48 STI   202      10.736  91.592  65.304  1.00  0.00     0.145 N 
HETATM   34  C49 STI   202      10.520  90.866  66.627  1.00  0.00     0.286 C 
HETATM   35  C50 STI   202       9.216  90.011  66.599  1.00  0.00     0.286 C 
HETATM   36  N51 STI   202       9.289  89.020  65.446  1.00  0.00     0.143 N 
HETATM   37  C52 STI   202       9.497  89.738  64.122  1.00  0.00     0.286 C 
HETATM   38  C54 STI   202       8.088  88.168  65.461  1.00  0.00     0.285 C 
HETATM   39  C53 STI   202      10.780  90.608  64.170  1.00  0.00     0.286 C 
ENDBRANCH  32  33
ENDBRANCH  29  32
ENDBRANCH  23  26
ENDBRANCH  17  22
ENDBRANCH  13  15
ENDBRANCH   9  13
ENDBRANCH   5   7
TORSDOF 7
ENDMDL
MODEL 2
REMARK VINA RESULT:     -10.8      3.281     12.321
REMARK  7 active torsions:
REMARK  status: ('A' for Active; 'I' for Inactive)
REMARK    1  A    between atoms: C5_5  and  C7_7 
REMARK    2  A    between atoms: C9_9  and  N13_13 
REMARK    3  A    between atoms: N13_13  and  C14_14 
REMARK    4  A    between atoms: C16_16  and  N21_21 
REMARK       I    between atoms: N21_21  and  C22_22 
REMARK    5  A    between atoms: C22_22  and  C23_23 
REMARK    6  A    between atoms: C27_26  and  C46_30 
REMARK    7  A    between atoms: C46_30  and  N48_31 
ROOT
HETATM    1  C1  STI   202       7.557  87.176  60.154  1.00  0.00    -0.001 A 
HETATM    2  C2  STI   202       7.021  87.102  58.825  1.00  0.00     0.095 A 
HETATM    3  N3  STI   202       6.408  88.219  58.249  1.00  0.00    -0.243 NA
HETATM    4  C4  STI   202       6.286  89.436  58.913  1.00  0.00     0.097 A 
HETATM    5  C5  STI   202       6.805  89.585  60.260  1.00  0.00     0.020 A 
HETATM    6  C6  STI   202       7.445  88.427  60.873  1.00  0.00     0.057 A 
ENDROOT
BRANCH   5   7
HETATM    7  C7  STI   202       6.659  90.905  60.959  1.00  0.00     0.099 A 
HETATM    8  N8  STI   202       7.425  91.106  62.090  1.00  0.00    -0.061 NA
HETATM    9  C9  STI   202       7.375  92.268  62.799  1.00  0.00     0.728 A 
HETATM   10  N10 STI   202       6.535  93.289  62.389  1.00  0.00    -0.059 NA
HETATM   11  C11 STI   202       5.741  93.148  61.263  1.00  0.00     0.119 A 
HETATM   12  C12 STI   202       5.776  91.948  60.506  1.00  0.00     0.041 A 
BRANCH   9  13
HETATM   13  N13 STI   202       8.192  92.379  63.928  1.00  0.00    -0.190 N 
HETATM   14  H   STI   202       7.839  91.976  64.867  1.00  0.00     0.184 HD
BRANCH  13  15
HETATM   15  C14 STI   202       9.454  92.997  63.889  1.00  0.00     0.052 A 
HETATM   16  C15 STI   202       9.667  94.065  62.963  1.00  0.00     0.087 A 
HETATM   17  C16 STI   202      10.959  94.749  62.885  1.00  0.00     0.042 A 
HETATM   18  C17 STI   202      12.002  94.324  63.754  1.00  0.00     0.013 A 
HETATM   19  C18 STI   202      11.800  93.250  64.693  1.00  0.00    -0.002 A 
HETATM   20  C19 STI   202      10.536  92.570  64.782  1.00  0.00    -0.009 A 
HETATM   21  C20 STI   202      10.396  91.431  65.819  1.00  0.00     0.032 C 
BRANCH  17  22
HETATM   22  N21 STI   202      11.248  95.837  61.981  1.00  0.00    -0.325 N 
HETATM   23  C22 STI   202      12.380  96.045  61.218  1.00  0.00     0.253 C 
HETATM   24  O29 STI   202      13.428  95.444  61.358  1.00  0.00    -0.268 OA
HETATM   25  H   STI   202      10.475  96.589  61.889  1.00  0.00     0.169 HD
BRANCH  23  26
HETATM   26  C23 STI   202      12.354  97.088  60.150  1.00  0.00     0.034 A 
HETATM   27  C25 STI   202      11.135  97.847  59.869  1.00  0.00     0.036 A 
HETATM   28  C26 STI   202      11.132  98.833  58.820  1.00  0.00     0.029 A 
HETATM   29  C27 STI   202      12.342  99.064  58.051  1.00  0.00    -0.011 A 
HETATM   30  C28 STI   202      13.537  98.303  58.351  1.00  0.00    -0.007 A 
HETATM   31  C29 STI   202      13.549  97.334  59.377  1.00  0.00    -0.000 A 
BRANCH  29  32
HETATM   32  C46 STI   202      12.410 100.080  56.906  1.00  0.00     0.273 C 
BRANCH  32  33
HETATM   33  N48 STI   202      13.157  99.689  55.672  1.00  0.00     0.145 N 
HETATM   34  C49 STI   202      14.468 100.458  55.543  1.00  0.00     0.286 C 
HETATM   35  C50 STI   202      15.250 100.035  54.262  1.00  0.00     0.286 C 
HETATM   36  N51 STI   202      14.371 100.257  53.039  1.00  0.00     0.143 N 
HETATM   37  C52 STI   202      13.065  99.487  53.158  1.00  0.00     0.286 C 
HETATM   38  C54 STI   202      15.134  99.921  51.825  1.00  0.00     0.285 C 
HETATM   39  C53 STI   202      12.309  99.894  54.450  1.00  0.00     0.286 C 
ENDBRANCH  32  33
ENDBRANCH  29  32
ENDBRANCH  23  26
ENDBRANCH  17  22
ENDBRANCH  13  15
ENDBRANCH   9  13
ENDBRANCH   5   7
TORSDOF 7
ENDMDL
MODEL 3
REMARK VINA RESULT:     -10.8      2.968     12.455
REMARK  7 active torsions:
REMARK  status: ('A' for Active; 'I' for Inactive)
REMARK    1  A    between atoms: C5_5  and  C7_7 
REMARK    2  A    between atoms: C9_9  and  N13_13 
REMARK    3  A    between atoms: N13_13  and  C14_14 
REMARK    4  A    between atoms: C16_16  and  N21_21 
REMARK       I    between atoms: N21_21  and  C22_22 
REMARK    5  A    between atoms: C22_22  and  C23_23 
REMARK    6  A    between atoms: C27_26  and  C46_30 
REMARK    7  A    between atoms: C46_30  and  N48_31 
ROOT
HETATM    1  C1  STI   202       5.037  93.914  60.058  1.00  0.00    -0.001 A 
HETATM    2  C2  STI   202       4.343  92.775  59.529  1.00  0.00     0.095 A 
HETATM    3  N3  STI   202       4.708  91.483  59.921  1.00  0.00    -0.243 NA
HETATM    4  C4  STI   202       5.737  91.233  60.824  1.00  0.00     0.097 A 
HETATM    5  C5  STI   202       6.482  92.337  61.400  1.00  0.00     0.020 A 
HETATM    6  C6  STI   202       6.113  93.689  60.998  1.00  0.00     0.057 A 
ENDROOT
BRANCH   5   7
HETATM    7  C7  STI   202       7.592  92.045  62.368  1.00  0.00     0.099 A 
HETATM    8  N8  STI   202       8.343  93.117  62.806  1.00  0.00    -0.061 NA
HETATM    9  C9  STI   202       9.370  92.968  63.688  1.00  0.00     0.728 A 
HETATM   10  N10 STI   202       9.684  91.708  64.171  1.00  0.00    -0.059 NA
HETATM   11  C11 STI   202       8.967  90.593  63.770  1.00  0.00     0.119 A 
HETATM   12  C12 STI   202       7.893  90.723  62.852  1.00  0.00     0.041 A 
BRANCH   9  13
HETATM   13  N13 STI   202      10.070  94.114  64.076  1.00  0.00    -0.190 N 
HETATM   14  H   STI   202       9.687  94.704  64.897  1.00  0.00     0.184 HD
BRANCH  13  15
HETATM   15  C14 STI   202      11.252  94.529  63.439  1.00  0.00     0.052 A 
HETATM   16  C15 STI   202      11.150  95.259  62.214  1.00  0.00     0.087 A 
HETATM   17  C16 STI   202      12.348  95.723  61.511  1.00  0.00     0.042 A 
HETATM   18  C17 STI   202      13.619  95.428  62.076  1.00  0.00     0.013 A 
HETATM   19  C18 STI   202      13.736  94.695  63.311  1.00  0.00    -0.002 A 
HETATM   20  C19 STI   202      12.568  94.234  64.012  1.00  0.00    -0.009 A 
HETATM   21  C20 STI   202      12.775  93.459  65.335  1.00  0.00     0.032 C 
BRANCH  17  22
HETATM   22  N21 STI   202      12.327  96.468  60.275  1.00  0.00    -0.325 N 
HETATM   23  C22 STI   202      11.752  97.698  60.019  1.00  0.00     0.253 C 
HETATM   24  O29 STI   202      10.966  98.260  60.758  1.00  0.00    -0.268 OA
HETATM   25  H   STI   202      12.829  96.002  59.437  1.00  0.00     0.169 HD
BRANCH  23  26
HETATM   26  C23 STI   202      12.086  98.406  58.748  1.00  0.00     0.034 A 
HETATM   27  C25 STI   202      13.447  98.870  58.481  1.00  0.00     0.036 A 
HETATM   28  C26 STI   202      13.738  99.567  57.255  1.00  0.00     0.029 A 
HETATM   29  C27 STI   202      12.673  99.801  56.295  1.00  0.00    -0.011 A 
HETATM   30  C28 STI   202      11.336  99.327  56.580  1.00  0.00    -0.007 A 
HETATM   31  C29 STI   202      11.041  98.643  57.779  1.00  0.00    -0.000 A 
BRANCH  29  32
HETATM   32  C46 STI   202      12.900 100.554  54.979  1.00  0.00     0.273 C 
BRANCH  32  33
HETATM   33  N48 STI   202      14.107 100.200  54.174  1.00  0.00     0.145 N 
HETATM   34  C49 STI   202      15.175 101.284  54.257  1.00  0.00     0.286 C 
HETATM   35  C50 STI   202      16.438 100.902  53.426  1.00  0.00     0.286 C 
HETATM   36  N51 STI   202      16.033 100.653  51.980  1.00  0.00     0.143 N 
HETATM   37  C52 STI   202      14.973  99.567  51.889  1.00  0.00     0.286 C 
HETATM   38  C54 STI   202      17.236 100.358  51.183  1.00  0.00     0.285 C 
HETATM   39  C53 STI   202      13.734  99.944  52.741  1.00  0.00     0.286 C 
ENDBRANCH  32  33
ENDBRANCH  29  32
ENDBRANCH  23  26
ENDBRANCH  17  22
ENDBRANCH  13  15
ENDBRANCH   9  13
ENDBRANCH   5   7
TORSDOF 7
ENDMDL
MODEL 4
REMARK VINA RESULT:     -10.7      2.543     12.468
REMARK  7 active torsions:
REMARK  status: ('A' for Active; 'I' for Inactive)
REMARK    1  A    between atoms: C5_5  and  C7_7 
REMARK    2  A    between atoms: C9_9  and  N13_13 
REMARK    3  A    between atoms: N13_13  and  C14_14 
REMARK    4  A    between atoms: C16_16  and  N21_21 
REMARK       I    between atoms: N21_21  and  C22_22 
REMARK    5  A    between atoms: C22_22  and  C23_23 
REMARK    6  A    between atoms: C27_26  and  C46_30 
REMARK    7  A    between atoms: C46_30  and  N48_31 
ROOT
HETATM    1  C1  STI   202       4.808  93.405  63.061  1.00  0.00    -0.001 A 
HETATM    2  C2  STI   202       5.083  93.903  61.744  1.00  0.00     0.095 A 
HETATM    3  N3  STI   202       6.343  93.713  61.167  1.00  0.00    -0.243 NA
HETATM    4  C4  STI   202       7.376  93.047  61.820  1.00  0.00     0.097 A 
HETATM    5  C5  STI   202       7.170  92.516  63.154  1.00  0.00     0.020 A 
HETATM    6  C6  STI   202       5.861  92.709  63.768  1.00  0.00     0.057 A 
ENDROOT
BRANCH   5   7
HETATM    7  C7  STI   202       8.300  91.806  63.842  1.00  0.00     0.099 A 
HETATM    8  N8  STI   202       9.371  92.575  64.251  1.00  0.00    -0.061 NA
HETATM    9  C9  STI   202      10.447  92.035  64.888  1.00  0.00     0.728 A 
HETATM   10  N10 STI   202      10.485  90.674  65.142  1.00  0.00    -0.059 NA
HETATM   11  C11 STI   202       9.441  89.849  64.756  1.00  0.00     0.119 A 
HETATM   12  C12 STI   202       8.309  90.387  64.091  1.00  0.00     0.041 A 
BRANCH   9  13
HETATM   13  N13 STI   202      11.481  92.896  65.268  1.00  0.00    -0.190 N 
HETATM   14  H   STI   202      11.465  93.320  66.263  1.00  0.00     0.184 HD
BRANCH  13  15
HETATM   15  C14 STI   202      12.540  93.231  64.407  1.00  0.00     0.052 A 
HETATM   16  C15 STI   202      12.296  94.166  63.353  1.00  0.00     0.087 A 
HETATM   17  C16 STI   202      13.365  94.558  62.432  1.00  0.00     0.042 A 
HETATM   18  C17 STI   202      14.653  93.983  62.608  1.00  0.00     0.013 A 
HETATM   19  C18 STI   202      14.912  93.040  63.667  1.00  0.00    -0.002 A 
HETATM   20  C19 STI   202      13.874  92.648  64.580  1.00  0.00    -0.009 A 
HETATM   21  C20 STI   202      14.231  91.636  65.694  1.00  0.00     0.032 C 
BRANCH  17  22
HETATM   22  N21 STI   202      13.198  95.498  61.348  1.00  0.00    -0.325 N 
HETATM   23  C22 STI   202      12.184  96.414  61.151  1.00  0.00     0.253 C 
HETATM   24  O29 STI   202      11.132  96.422  61.760  1.00  0.00    -0.268 OA
HETATM   25  H   STI   202      13.972  95.483  60.591  1.00  0.00     0.169 HD
BRANCH  23  26
HETATM   26  C23 STI   202      12.354  97.472  60.111  1.00  0.00     0.034 A 
HETATM   27  C25 STI   202      11.386  98.561  59.982  1.00  0.00     0.036 A 
HETATM   28  C26 STI   202      11.563  99.558  58.958  1.00  0.00     0.029 A 
HETATM   29  C27 STI   202      12.705  99.471  58.063  1.00  0.00    -0.011 A 
HETATM   30  C28 STI   202      13.652  98.386  58.215  1.00  0.00    -0.007 A 
HETATM   31  C29 STI   202      13.486  97.405  59.216  1.00  0.00    -0.000 A 
BRANCH  29  32
HETATM   32  C46 STI   202      12.949 100.480  56.937  1.00  0.00     0.273 C 
BRANCH  32  33
HETATM   33  N48 STI   202      13.576  99.979  55.677  1.00  0.00     0.145 N 
HETATM   34  C49 STI   202      14.927 100.640  55.421  1.00  0.00     0.286 C 
HETATM   35  C50 STI   202      15.583 100.102  54.113  1.00  0.00     0.286 C 
HETATM   36  N51 STI   202      14.638 100.335  52.943  1.00  0.00     0.143 N 
HETATM   37  C52 STI   202      13.292  99.672  53.188  1.00  0.00     0.286 C 
HETATM   38  C54 STI   202      15.287  99.887  51.699  1.00  0.00     0.285 C 
HETATM   39  C53 STI   202      12.661 100.193  54.506  1.00  0.00     0.286 C 
ENDBRANCH  32  33
ENDBRANCH  29  32
ENDBRANCH  23  26
ENDBRANCH  17  22
ENDBRANCH  13  15
ENDBRANCH   9  13
ENDBRANCH   5   7
TORSDOF 7
ENDMDL
MODEL 5
REMARK VINA RESULT:     -10.4      1.732     13.616
REMARK  7 active torsions:
REMARK  status: ('A' for Active; 'I' for Inactive)
REMARK    1  A    between atoms: C5_5  and  C7_7 
REMARK    2  A    between atoms: C9_9  and  N13_13 
REMARK    3  A    between atoms: N13_13  and  C14_14 
REMARK    4  A    between atoms: C16_16  and  N21_21 
REMARK       I    between atoms: N21_21  and  C22_22 
REMARK    5  A    between atoms: C22_22  and  C23_23 
REMARK    6  A    between atoms: C27_26  and  C46_30 
REMARK    7  A    between atoms: C46_30  and  N48_31 
ROOT
HETATM    1  C1  STI   202       8.977  90.069  68.780  1.00  0.00    -0.001 A 
HETATM    2  C2  STI   202       7.979  89.038  68.756  1.00  0.00     0.095 A 
HETATM    3  N3  STI   202       7.212  88.828  67.606  1.00  0.00    -0.243 NA
HETATM    4  C4  STI   202       7.368  89.584  66.448  1.00  0.00     0.097 A 
HETATM    5  C5  STI   202       8.359  90.643  66.400  1.00  0.00     0.020 A 
HETATM    6  C6  STI   202       9.164  90.874  67.594  1.00  0.00     0.057 A 
ENDROOT
BRANCH   5   7
HETATM    7  C7  STI   202       8.508  91.449  65.143  1.00  0.00     0.099 A 
HETATM    8  N8  STI   202       9.297  92.580  65.211  1.00  0.00    -0.061 NA
HETATM    9  C9  STI   202       9.504  93.383  64.130  1.00  0.00     0.728 A 
HETATM   10  N10 STI   202       8.913  93.069  62.917  1.00  0.00    -0.059 NA
HETATM   11  C11 STI   202       8.111  91.948  62.785  1.00  0.00     0.119 A 
HETATM   12  C12 STI   202       7.880  91.096  63.896  1.00  0.00     0.041 A 
BRANCH   9  13
HETATM   13  N13 STI   202      10.322  94.504  64.296  1.00  0.00    -0.190 N 
HETATM   14  H   STI   202      10.052  95.239  65.042  1.00  0.00     0.184 HD
BRANCH  13  15
HETATM   15  C14 STI   202      11.482  94.712  63.530  1.00  0.00     0.052 A 
HETATM   16  C15 STI   202      11.379  95.466  62.320  1.00  0.00     0.087 A 
HETATM   17  C16 STI   202      12.556  95.721  61.488  1.00  0.00     0.042 A 
HETATM   18  C17 STI   202      13.809  95.198  61.911  1.00  0.00     0.013 A 
HETATM   19  C18 STI   202      13.927  94.438  63.129  1.00  0.00    -0.002 A 
HETATM   20  C19 STI   202      12.781  94.181  63.957  1.00  0.00    -0.009 A 
HETATM   21  C20 STI   202      12.990  93.362  65.253  1.00  0.00     0.032 C 
BRANCH  17  22
HETATM   22  N21 STI   202      12.532  96.477  60.257  1.00  0.00    -0.325 N 
HETATM   23  C22 STI   202      11.889  97.669  59.990  1.00  0.00     0.253 C 
HETATM   24  O29 STI   202      11.041  98.172  60.703  1.00  0.00    -0.268 OA
HETATM   25  H   STI   202      13.094  96.052  59.435  1.00  0.00     0.169 HD
BRANCH  23  26
HETATM   26  C23 STI   202      12.223  98.410  58.738  1.00  0.00     0.034 A 
HETATM   27  C25 STI   202      13.605  98.778  58.428  1.00  0.00     0.036 A 
HETATM   28  C26 STI   202      13.897  99.510  57.223  1.00  0.00     0.029 A 
HETATM   29  C27 STI   202      12.814  99.874  56.326  1.00  0.00    -0.011 A 
HETATM   30  C28 STI   202      11.456  99.494  56.653  1.00  0.00    -0.007 A 
HETATM   31  C29 STI   202      11.160  98.777  57.832  1.00  0.00    -0.000 A 
BRANCH  29  32
HETATM   32  C46 STI   202      13.043 100.671  55.037  1.00  0.00     0.273 C 
BRANCH  32  33
HETATM   33  N48 STI   202      14.206 100.290  54.181  1.00  0.00     0.145 N 
HETATM   34  C49 STI   202      15.237 101.411  54.105  1.00  0.00     0.286 C 
HETATM   35  C50 STI   202      16.456 101.001  53.222  1.00  0.00     0.286 C 
HETATM   36  N51 STI   202      15.966 100.623  51.832  1.00  0.00     0.143 N 
HETATM   37  C52 STI   202      14.943  99.501  51.899  1.00  0.00     0.286 C 
HETATM   38  C54 STI   202      17.124 100.302  50.979  1.00  0.00     0.285 C 
HETATM   39  C53 STI   202      13.749  99.907  52.803  1.00  0.00     0.286 C 
ENDBRANCH  32  33
ENDBRANCH  29  32
ENDBRANCH  23  26
ENDBRANCH  17  22
ENDBRANCH  13  15
ENDBRANCH   9  13
ENDBRANCH   5   7
TORSDOF 7
ENDMDL
MODEL 6
REMARK VINA RESULT:     -10.3      3.459     12.335
REMARK  7 active torsions:
REMARK  status: ('A' for Active; 'I' for Inactive)
REMARK    1  A    between atoms: C5_5  and  C7_7 
REMARK    2  A    between atoms: C9_9  and  N13_13 
REMARK    3  A    between atoms: N13_13  and  C14_14 
REMARK    4  A    between atoms: C16_16  and  N21_21 
REMARK       I    between atoms: N21_21  and  C22_22 
REMARK    5  A    between atoms: C22_22  and  C23_23 
REMARK    6  A    between atoms: C27_26  and  C46_30 
REMARK    7  A    between atoms: C46_30  and  N48_31 
ROOT
HETATM    1  C1  STI   202       4.386  91.466  59.631  1.00  0.00    -0.001 A 
HETATM    2  C2  STI   202       3.918  92.732  59.143  1.00  0.00     0.095 A 
HETATM    3  N3  STI   202       4.095  93.890  59.906  1.00  0.00    -0.243 NA
HETATM    4  C4  STI   202       4.721  93.883  61.149  1.00  0.00     0.097 A 
HETATM    5  C5  STI   202       5.220  92.640  61.705  1.00  0.00     0.020 A 
HETATM    6  C6  STI   202       5.040  91.424  60.920  1.00  0.00     0.057 A 
ENDROOT
BRANCH   5   7
HETATM    7  C7  STI   202       5.888  92.655  63.050  1.00  0.00     0.099 A 
HETATM    8  N8  STI   202       7.187  92.191  63.112  1.00  0.00    -0.061 NA
HETATM    9  C9  STI   202       7.889  92.164  64.279  1.00  0.00     0.728 A 
HETATM   10  N10 STI   202       7.298  92.612  65.449  1.00  0.00    -0.059 NA
HETATM   11  C11 STI   202       5.998  93.089  65.450  1.00  0.00     0.119 A 
HETATM   12  C12 STI   202       5.245  93.128  64.248  1.00  0.00     0.041 A 
BRANCH   9  13
HETATM   13  N13 STI   202       9.200  91.681  64.241  1.00  0.00    -0.190 N 
HETATM   14  H   STI   202       9.359  90.614  64.160  1.00  0.00     0.184 HD
BRANCH  13  15
HETATM   15  C14 STI   202      10.320  92.528  64.305  1.00  0.00     0.052 A 
HETATM   16  C15 STI   202      10.432  93.589  63.354  1.00  0.00     0.087 A 
HETATM   17  C16 STI   202      11.573  94.507  63.378  1.00  0.00     0.042 A 
HETATM   18  C17 STI   202      12.572  94.316  64.372  1.00  0.00     0.013 A 
HETATM   19  C18 STI   202      12.470  93.250  65.338  1.00  0.00    -0.002 A 
HETATM   20  C19 STI   202      11.355  92.344  65.327  1.00  0.00    -0.009 A 
HETATM   21  C20 STI   202      11.315  91.230  66.400  1.00  0.00     0.032 C 
BRANCH  17  22
HETATM   22  N21 STI   202      11.753  95.603  62.456  1.00  0.00    -0.325 N 
HETATM   23  C22 STI   202      12.756  95.789  61.525  1.00  0.00     0.253 C 
HETATM   24  O29 STI   202      13.789  95.150  61.485  1.00  0.00    -0.268 OA
HETATM   25  H   STI   202      11.003  96.382  62.501  1.00  0.00     0.169 HD
BRANCH  23  26
HETATM   26  C23 STI   202      12.597  96.854  60.490  1.00  0.00     0.034 A 
HETATM   27  C25 STI   202      11.391  97.681  60.441  1.00  0.00     0.036 A 
HETATM   28  C26 STI   202      11.254  98.688  59.421  1.00  0.00     0.029 A 
HETATM   29  C27 STI   202      12.320  98.873  58.451  1.00  0.00    -0.011 A 
HETATM   30  C28 STI   202      13.506  98.045  58.524  1.00  0.00    -0.007 A 
HETATM   31  C29 STI   202      13.647  97.055  59.520  1.00  0.00    -0.000 A 
BRANCH  29  32
HETATM   32  C46 STI   202      12.239  99.908  57.324  1.00  0.00     0.273 C 
BRANCH  32  33
HETATM   33  N48 STI   202      12.944  99.600  56.044  1.00  0.00     0.145 N 
HETATM   34  C49 STI   202      14.270 100.347  55.940  1.00  0.00     0.286 C 
HETATM   35  C50 STI   202      15.009 100.010  54.609  1.00  0.00     0.286 C 
HETATM   36  N51 STI   202      14.105 100.349  53.432  1.00  0.00     0.143 N 
HETATM   37  C52 STI   202      12.785  99.601  53.525  1.00  0.00     0.286 C 
HETATM   38  C54 STI   202      14.829 100.093  52.175  1.00  0.00     0.285 C 
HETATM   39  C53 STI   202      12.071  99.920  54.865  1.00  0.00     0.286 C 
ENDBRANCH  32  33
ENDBRANCH  29  32
ENDBRANCH  23  26
ENDBRANCH  17  22
ENDBRANCH  13  15
ENDBRANCH   9  13
ENDBRANCH   5   7
TORSDOF 7
ENDMDL
MODEL 7
REMARK VINA RESULT:      -9.8      2.465     13.956
REMARK  7 active torsions:
REMARK  status: ('A' for Active; 'I' for Inactive)
REMARK    1  A    between atoms: C5_5  and  C7_7 
REMARK    2  A    between atoms: C9_9  and  N13_13 
REMARK    3  A    between atoms: N13_13  and  C14_14 
REMARK    4  A    between atoms: C16_16  and  N21_21 
REMARK       I    between atoms: N21_21  and  C22_22 
REMARK    5  A    between atoms: C22_22  and  C23_23 
REMARK    6  A    between atoms: C27_26  and  C46_30 
REMARK    7  A    between atoms: C46_30  and  N48_31 
ROOT
HETATM    1  C1  STI   202       6.032  89.357  69.644  1.00  0.00    -0.001 A 
HETATM    2  C2  STI   202       7.348  89.354  70.216  1.00  0.00     0.095 A 
HETATM    3  N3  STI   202       8.381  90.077  69.611  1.00  0.00    -0.243 NA
HETATM    4  C4  STI   202       8.198  90.822  68.451  1.00  0.00     0.097 A 
HETATM    5  C5  STI   202       6.894  90.872  67.817  1.00  0.00     0.020 A 
HETATM    6  C6  STI   202       5.808  90.121  68.437  1.00  0.00     0.057 A 
ENDROOT
BRANCH   5   7
HETATM    7  C7  STI   202       6.720  91.679  66.563  1.00  0.00     0.099 A 
HETATM    8  N8  STI   202       7.726  91.602  65.621  1.00  0.00    -0.061 NA
HETATM    9  C9  STI   202       7.670  92.288  64.446  1.00  0.00     0.728 A 
HETATM   10  N10 STI   202       6.576  93.093  64.170  1.00  0.00    -0.059 NA
HETATM   11  C11 STI   202       5.534  93.210  65.076  1.00  0.00     0.119 A 
HETATM   12  C12 STI   202       5.569  92.506  66.306  1.00  0.00     0.041 A 
BRANCH   9  13
HETATM   13  N13 STI   202       8.735  92.144  63.553  1.00  0.00    -0.190 N 
HETATM   14  H   STI   202       8.684  91.365  62.804  1.00  0.00     0.184 HD
BRANCH  13  15
HETATM   15  C14 STI   202       9.871  92.971  63.591  1.00  0.00     0.052 A 
HETATM   16  C15 STI   202       9.997  94.008  62.615  1.00  0.00     0.087 A 
HETATM   17  C16 STI   202      11.155  94.904  62.612  1.00  0.00     0.042 A 
HETATM   18  C17 STI   202      12.155  94.718  63.605  1.00  0.00     0.013 A 
HETATM   19  C18 STI   202      12.040  93.678  64.596  1.00  0.00    -0.002 A 
HETATM   20  C19 STI   202      10.908  92.792  64.612  1.00  0.00    -0.009 A 
HETATM   21  C20 STI   202      10.853  91.704  65.711  1.00  0.00     0.032 C 
BRANCH  17  22
HETATM   22  N21 STI   202      11.350  95.975  61.664  1.00  0.00    -0.325 N 
HETATM   23  C22 STI   202      12.507  96.341  61.004  1.00  0.00     0.253 C 
HETATM   24  O29 STI   202      13.621  95.945  61.290  1.00  0.00    -0.268 OA
HETATM   25  H   STI   202      10.474  96.570  61.440  1.00  0.00     0.169 HD
BRANCH  23  26
HETATM   26  C23 STI   202      12.420  97.301  59.864  1.00  0.00     0.034 A 
HETATM   27  C25 STI   202      11.123  97.712  59.324  1.00  0.00     0.036 A 
HETATM   28  C26 STI   202      11.068  98.625  58.212  1.00  0.00     0.029 A 
HETATM   29  C27 STI   202      12.303  99.129  57.638  1.00  0.00    -0.011 A 
HETATM   30  C28 STI   202      13.574  98.712  58.193  1.00  0.00    -0.007 A 
HETATM   31  C29 STI   202      13.637  97.817  59.283  1.00  0.00    -0.000 A 
BRANCH  29  32
HETATM   32  C46 STI   202      12.326 100.085  56.440  1.00  0.00     0.273 C 
BRANCH  32  33
HETATM   33  N48 STI   202      13.227  99.748  55.297  1.00  0.00     0.145 N 
HETATM   34  C49 STI   202      14.483 100.612  55.299  1.00  0.00     0.286 C 
HETATM   35  C50 STI   202      15.426 100.244  54.112  1.00  0.00     0.286 C 
HETATM   36  N51 STI   202      14.669 100.397  52.802  1.00  0.00     0.143 N 
HETATM   37  C52 STI   202      13.418  99.532  52.790  1.00  0.00     0.286 C 
HETATM   38  C54 STI   202      15.579 100.115  51.679  1.00  0.00     0.285 C 
HETATM   39  C53 STI   202      12.501  99.885  53.990  1.00  0.00     0.286 C 
ENDBRANCH  32  33
ENDBRANCH  29  32
ENDBRANCH  23  26
ENDBRANCH  17  22
ENDBRANCH  13  15
ENDBRANCH   9  13
ENDBRANCH   5   7
TORSDOF 7
ENDMDL
MODEL 8
REMARK VINA RESULT:      -9.2      2.253     12.923
REMARK  7 active torsions:
REMARK  status: ('A' for Active; 'I' for Inactive)
REMARK    1  A    between atoms: C5_5  and  C7_7 
REMARK    2  A    between atoms: C9_9  and  N13_13 
REMARK    3  A    between atoms: N13_13  and  C14_14 
REMARK    4  A    between atoms: C16_16  and  N21_21 
REMARK       I    between atoms: N21_21  and  C22_22 
REMARK    5  A    between atoms: C22_22  and  C23_23 
REMARK    6  A    between atoms: C27_26  and  C46_30 
REMARK    7  A    between atoms: C46_30  and  N48_31 
ROOT
HETATM    1  C1  STI   202       6.432  90.603  60.359  1.00  0.00    -0.001 A 
HETATM    2  C2  STI   202       5.953  89.254  60.264  1.00  0.00     0.095 A 
HETATM    3  N3  STI   202       5.982  88.416  61.383  1.00  0.00    -0.243 NA
HETATM    4  C4  STI   202       6.462  88.830  62.621  1.00  0.00     0.097 A 
HETATM    5  C5  STI   202       6.962  90.181  62.792  1.00  0.00     0.020 A 
HETATM    6  C6  STI   202       6.940  91.065  61.632  1.00  0.00     0.057 A 
ENDROOT
BRANCH   5   7
HETATM    7  C7  STI   202       7.480  90.606  64.135  1.00  0.00     0.099 A 
HETATM    8  N8  STI   202       8.173  91.799  64.193  1.00  0.00    -0.061 NA
HETATM    9  C9  STI   202       8.683  92.282  65.360  1.00  0.00     0.728 A 
HETATM   10  N10 STI   202       8.511  91.568  66.535  1.00  0.00    -0.059 NA
HETATM   11  C11 STI   202       7.825  90.365  66.541  1.00  0.00     0.119 A 
HETATM   12  C12 STI   202       7.284  89.840  65.339  1.00  0.00     0.041 A 
BRANCH   9  13
HETATM   13  N13 STI   202       9.366  93.501  65.320  1.00  0.00    -0.190 N 
HETATM   14  H   STI   202       9.044  94.299  65.975  1.00  0.00     0.184 HD
BRANCH  13  15
HETATM   15  C14 STI   202      10.454  93.730  64.460  1.00  0.00     0.052 A 
HETATM   16  C15 STI   202      10.327  94.726  63.443  1.00  0.00     0.087 A 
HETATM   17  C16 STI   202      11.431  95.012  62.525  1.00  0.00     0.042 A 
HETATM   18  C17 STI   202      12.636  94.270  62.667  1.00  0.00     0.013 A 
HETATM   19  C18 STI   202      12.778  93.264  63.689  1.00  0.00    -0.002 A 
HETATM   20  C19 STI   202      11.703  92.974  64.598  1.00  0.00    -0.009 A 
HETATM   21  C20 STI   202      11.934  91.884  65.671  1.00  0.00     0.032 C 
BRANCH  17  22
HETATM   22  N21 STI   202      11.381  96.005  61.478  1.00  0.00    -0.325 N 
HETATM   23  C22 STI   202      12.351  96.915  61.106  1.00  0.00     0.253 C 
HETATM   24  O29 STI   202      13.341  97.175  61.762  1.00  0.00    -0.268 OA
HETATM   25  H   STI   202      10.461  96.040  60.908  1.00  0.00     0.169 HD
BRANCH  23  26
HETATM   26  C23 STI   202      12.193  97.660  59.822  1.00  0.00     0.034 A 
HETATM   27  C25 STI   202      10.922  97.649  59.098  1.00  0.00     0.036 A 
HETATM   28  C26 STI   202      10.802  98.361  57.852  1.00  0.00     0.029 A 
HETATM   29  C27 STI   202      11.948  99.084  57.328  1.00  0.00    -0.011 A 
HETATM   30  C28 STI   202      13.193  99.084  58.066  1.00  0.00    -0.007 A 
HETATM   31  C29 STI   202      13.320  98.389  59.288  1.00  0.00    -0.000 A 
BRANCH  29  32
HETATM   32  C46 STI   202      11.905  99.846  55.999  1.00  0.00     0.273 C 
BRANCH  32  33
HETATM   33  N48 STI   202      13.036  99.645  55.044  1.00  0.00     0.145 N 
HETATM   34  C49 STI   202      14.182 100.612  55.319  1.00  0.00     0.286 C 
HETATM   35  C50 STI   202      15.366 100.386  54.329  1.00  0.00     0.286 C 
HETATM   36  N51 STI   202      14.863 100.538  52.901  1.00  0.00     0.143 N 
HETATM   37  C52 STI   202      13.724  99.572  52.617  1.00  0.00     0.286 C 
HETATM   38  C54 STI   202      15.994 100.391  51.969  1.00  0.00     0.285 C 
HETATM   39  C53 STI   202      12.565  99.785  53.625  1.00  0.00     0.286 C 
ENDBRANCH  32  33
ENDBRANCH  29  32
ENDBRANCH  23  26
ENDBRANCH  17  22
ENDBRANCH  13  15
ENDBRANCH   9  13
ENDBRANCH   5   7
TORSDOF 7
ENDMDL
